64

Si       0.10000000       0.00000000       0.00000000
Si       0.10000000       2.71549996       2.71549996
Si       2.71549996       2.71549996       0.00000000
Si       2.71549996       0.00000000       2.71549996
Si       4.07324995       1.35774998       4.07324995
Si       1.35774998       1.35774998       1.35774998
Si       1.35774998       4.07324995       4.07324995
Si       4.07324995       4.07324995       1.35774998
Si       0.00000000       0.00000000       5.43099993
Si       0.00000000       2.71549996       8.14649989
Si       2.71549996       2.71549996       5.43099993
Si       2.71549996       0.00000000       8.14649989
Si       4.07324995       1.35774998       9.50424988
Si       1.35774998       1.35774998       6.78874991
Si       1.35774998       4.07324995       9.50424988
Si       4.07324995       4.07324995       6.78874991
Si       0.00000000       5.43099993       0.00000000
Si       0.00000000       8.14649989       2.71549996
Si       2.71549996       8.14649989       0.00000000
Si       2.71549996       5.43099993       2.71549996
Si       4.07324995       6.78874991       4.07324995
Si       1.35774998       6.78874991       1.35774998
Si       1.35774998       9.50424988       4.07324995
Si       4.07324995       9.50424988       1.35774998
Si       0.00000000       5.43099993       5.43099993
Si       0.00000000       8.14649989       8.14649989
Si       2.71549996       8.14649989       5.43099993
Si       2.71549996       5.43099993       8.14649989
Si       4.07324995       6.78874991       9.50424988
Si       1.35774998       6.78874991       6.78874991
Si       1.35774998       9.50424988       9.50424988
Si       4.07324995       9.50424988       6.78874991
Si       5.43099993       0.00000000       0.00000000
Si       5.43099993       2.71549996       2.71549996
Si       8.14649989       2.71549996       0.00000000
Si       8.14649989       0.00000000       2.71549996
Si       9.50424988       1.35774998       4.07324995
Si       6.78874991       1.35774998       1.35774998
Si       6.78874991       4.07324995       4.07324995
Si       9.50424988       4.07324995       1.35774998
Si       5.43099993       0.00000000       5.43099993
Si       5.43099993       2.71549996       8.14649989
Si       8.14649989       2.71549996       5.43099993
Si       8.14649989       0.00000000       8.14649989
Si       9.50424988       1.35774998       9.50424988
Si       6.78874991       1.35774998       6.78874991
Si       6.78874991       4.07324995       9.50424988
Si       9.50424988       4.07324995       6.78874991
Si       5.43099993       5.43099993       0.00000000
Si       5.43099993       8.14649989       2.71549996
Si       8.14649989       8.14649989       0.00000000
Si       8.14649989       5.43099993       2.71549996
Si       9.50424988       6.78874991       4.07324995
Si       6.78874991       6.78874991       1.35774998
Si       6.78874991       9.50424988       4.07324995
Si       9.50424988       9.50424988       1.35774998
Si       5.43099993       5.43099993       5.43099993
Si       5.43099993       8.14649989       8.14649989
Si       8.14649989       8.14649989       5.43099993
Si       8.14649989       5.43099993       8.14649989
Si       9.50424988       6.78874991       9.50424988
Si       6.78874991       6.78874991       6.78874991
Si       6.78874991       9.50424988       9.50424988
Si       9.60424988       9.50424988       6.78874991
